LAMMPS (5 Jun 2019)
#cuzr quench

units           metal
boundary        p p p
atom_style      atomic
variable        highT equal 2000
variable	coolT equal 300
variable	quenchrt equal 10e-3 #10e-5					#10^10K/s= 10^-5K/timestep
variable	t_equil equal 200000 #0
variable	t_quench equal (2000-300)/(0.01)
read_data	NanoParticle
  orthogonal box = (-27.0579 -27.0579 -27.0579) to (27.0579 27.0579 27.0579)
  reading atoms ...
  884 atoms
  reading velocities ...
  884 velocities

pair_style      eam/alloy
pair_coeff      * * ZrCu.lammps.eam Zr Cu

reset_ids
  update every 1 steps, delay 10 steps, check yes
compute		c5 all pe/atom

thermo          1000
thermo_style    custom step pe press pxx pyy pzz lx ly lz vol temp

minimize	1e-8 1e-8 1000 1000
Step PotEng Press Pxx Pyy Pzz Lx Ly Lz Volume Temp
0   -3793.0652   -3138.5914   -3145.1922   -3166.6445   -3103.9374    54.115734    54.115734    54.115734    158478.61    1.7979003
Loop time of 3.33899 on 60 procs for 320 steps with 884 atoms

Minimization stats:
  Stopping criterion = energy tolerance
  Energy initial, next-to-last, final =
  Force two-norm initial, final = 10.5993 0.0188002
  Force max component initial, final = 1.28839 0.00561333
  Final line search alpha, max atom move = 1 0.00561333
  Iterations, force evaluations = 320 591

reset_timestep	0
timestep	0.001

velocity	all create 2000 74657362 mom yes rot yes
fix		1 all nvt temp 2000 2000 0.1

dump		relax all custom 10000 data/dump.atom id type x y z
run		200000
Step PotEng Press Pxx Pyy Pzz Lx Ly Lz Volume Temp
0   -3834.7798    1538.3467    1525.9876    1575.0085    1514.0439    54.115734    54.115734    54.115734    158478.61         2000
Averages over the last 101 of 201 rows, steps 100000 to 200000:
PotEng Press Pxx Pyy Pzz Lx Ly Lz Volume Temp
-3498.32 -8.70866 41.0903 -52.3813 -14.835 54.1157 54.1157 54.1157 158479 2005.23
Loop time of 930.015 on 60 procs for 200000 steps with 884 atoms

unfix		1
fix		2 all nvt temp 2000 2000 0.1
run		170000
Step PotEng Press Pxx Pyy Pzz Lx Ly Lz Volume Temp
200000   -3488.5089    618.29323    835.93175    147.68253    871.26541    54.115734    54.115734    54.115734    158478.61    1959.1692
Averages over the last 86 of 171 rows, steps 285000 to 370000:
PotEng Press Pxx Pyy Pzz Lx Ly Lz Volume Temp
-3496.61 29.6208 -6.1931 49.2416 45.8138 54.1157 54.1157 54.1157 158479 2004.18
Loop time of 784.025 on 60 procs for 170000 steps with 884 atoms

unfix		2
fix		3 all nvt temp 300 300 0.1
fix		f8 all ave/atom 1 1 1 x y z c_c5
#variable	ad equal c_c5[1]
run		200000
Step PotEng Press Pxx Pyy Pzz Lx Ly Lz Volume Temp
370000   -3503.0229   -328.04605   -519.37333    -380.1935   -84.571325    54.115734    54.115734    54.115734    158478.61    2058.7526
Averages over the last 101 of 201 rows, steps 470000 to 570000:
PotEng Press Pxx Pyy Pzz Lx Ly Lz Volume Temp
-3801.41 1.06357 15.5089 -14.0894 1.7712 54.1157 54.1157 54.1157 158479 301.256
Loop time of 1115.82 on 60 procs for 200000 steps with 884 atoms

info		fixes computes out screen

write_data	NanoP.relaxed
write_dump	all custom molfil.txt id type mass x y z f_f8[*]
