LAMMPS (5 Jun 2019)
##################################################################
##IN.LATTICE	                                                ##
##Script to deposits prequenched clusters at random locations	##
##on substrate. Compute RDFs and voronoi after impaction	##
##################################################################
##Dependencies	: ../step1/*, ../step2/*                        ##
##Influences	: lammpstrj.*, post/*, log.*, *.restart         ##
##################################################################
## ver. : 2019-07-24, Syamal Praneeth Chilakalapudi, INT, KIT	##
##Author Email    :syamalpraneeth@gmail.com			##
##################################################################

#--------------------------------------------------------------------INITIALISE
units           metal
boundary        p p p
atom_style      atomic
atom_modify map array

read_data	data.Substrate
  orthogonal box = (-49.9863 -49.9863 -19.9973) to (49.9863 49.9863 109.997)
  reading atoms ...
  12500 atoms
  reading velocities ...
  12500 velocities
mass		1 63.546
mass		2 91.224
pair_style      eam/alloy
pair_coeff      * * ZrCu.lammps.eam Zr Cu

variable        myT equal 300
variable	top equal bound(all,ymax)
variable	inter equal 49.9850757681647+2

region          bottom block INF INF INF INF INF -8 units box
region		interface block INF INF INF INF 49.9850757681647 51.9850757681647 units box
region		film block INF INF INF INF 49.9850757681647 INF units box

#-----------------------------------------------------------------------THERMO
thermo          100
thermo_style    custom step pe press pxx pyy pzz lx ly lz vol temp

variable	BoxL  equal  lx
variable	dispX  equal  random(0,99.9725615122585,475414)
variable	dispY  equal  random(0,99.9725615122585,475414)

#----------------------------------------------------------GROUPS AND COMPUTES
group		g1 type 1
4473 atoms in group g1
group		g2 type 2
8027 atoms in group g2
group           bottomLayer region bottom
1261 atoms in group bottomLayer
group		film region film
0 atoms in group film
group		film_g1 union film g1
4473 atoms in group film_g1
group		film_g2 union film g2
8027 atoms in group film_g2
compute		prdf11 film_g1 rdf 100
compute		prdf22 film_g2 rdf 100
compute		rdf film rdf 100 #cutoff 3.5
compute		bulk_rdf bottomLayer rdf 100 #cutoff 3.5

#---------------------------------------------------------------------DEPOSIT LOOP
shell           mkdir  dump
dump		relax all custom 500 dump/dump.atom id type x y z

variable a loop 10
label l1

group 	       myG  id <= 0
0 atoms in group myG
read_data      myNanoP.txt add append group myG
  orthogonal box = (-49.9863 -49.9863 -19.9973) to (49.9863 49.9863 109.997)
  reading atoms ...
  884 atoms
  reading velocities ...
  884 velocities
group          subG subtract all myG
12500 atoms in group subG

variable       dxx   equal  "v_dispX-0.5*v_BoxL"
variable       dyy   equal  "v_dispY-0.5*v_BoxL"
variable       dzz   equal  "v_a*3+50"
53

displace_atoms myG move -46.2086513071489 10.6927909340182 53 units box
#displace_atoms myG move 0 0  50 units box		#make it uniform
reset_ids
  update every 1 steps, delay 10 steps, check yes

variable	E equal 500*(1.6e-19)				#units: eV
variable	mass equal (mass(myG))*(1.6605e-27)
variable        cvel equal (-1)*(sqrt(2*8e-17/1.0826230851e-22))/100
velocity        myG create 300 74657362 mom yes rot yes
velocity        myG set 0 0 -12.1568581600967 units box

velocity        subG create 300 74657362 mom yes rot yes
set             group bottomLayer vz  0
  1261 settings made for vz
fix             freeze bottomLayer setforce NULL NULL 0.0

#compute myT 	subG temp
#thermo_modify 	temp myT

fix            1 all nve
fix            2 bottomLayer temp/berendsen 200.0 200.0 0.1
run            50000
Step PotEng Press Pxx Pyy Pzz Lx Ly Lz Volume Temp
0    -58680.58   -2583.7411   -3603.9229   -3326.1166   -821.18375    99.972562    99.972562    129.99451    1299231.9    559.15697
Averages over the last 251 of 501 rows, steps 25000 to 50000:
PotEng Press Pxx Pyy Pzz Lx Ly Lz Volume Temp
-59045.1 -1122.25 -1706.8 -1531.99 -127.951 99.9726 99.9726 129.995 1.29923e+06 315.022
Loop time of 326.101 on 45 procs for 50000 steps with 13384 atoms

print		"run finished for a value $a"
run finished for a value 1

#undump	relax
#uncompute myT
unfix	freeze
unfix	1
unfix	2
group	myG	clear
group	subG 	clear
variable dxx	delete
variable dyy	delete
variable dzz  	delete

next a
jump in.CuZr_deposit l1

group 	       myG  id <= 0
0 atoms in group myG
read_data      myNanoP.txt add append group myG
  orthogonal box = (-49.9863 -49.9863 -19.9973) to (49.9863 49.9863 109.997)
  reading atoms ...
  884 atoms
  reading velocities ...
  884 velocities
group          subG subtract all myG
13384 atoms in group subG

variable       dxx   equal  "v_dispX-0.5*v_BoxL"
variable       dyy   equal  "v_dispY-0.5*v_BoxL"
variable       dzz   equal  "v_a*3+50"
56

displace_atoms myG move -2.12434637959995 28.7142443749971 56 units box
#displace_atoms myG move 0 0  50 units box		#make it uniform
reset_ids

variable	E equal 500*(1.6e-19)				#units: eV
variable	mass equal (mass(myG))*(1.6605e-27)
variable        cvel equal (-1)*(sqrt(2*8e-17/1.0826230851e-22))/100
velocity        myG create 300 74657362 mom yes rot yes
velocity        myG set 0 0 -12.1568581600967 units box

velocity        subG create 300 74657362 mom yes rot yes
set             group bottomLayer vz  0
  1261 settings made for vz
fix             freeze bottomLayer setforce NULL NULL 0.0

#compute myT 	subG temp
#thermo_modify 	temp myT

fix            1 all nve
fix            2 bottomLayer temp/berendsen 200.0 200.0 0.1
run            50000
Step PotEng Press Pxx Pyy Pzz Lx Ly Lz Volume Temp
50000   -62880.165   -1199.9957   -2146.8129   -2077.5447    624.37057    99.972562    99.972562    129.99451    1299231.9     543.0207
Averages over the last 251 of 501 rows, steps 75000 to 100000:
PotEng Press Pxx Pyy Pzz Lx Ly Lz Volume Temp
-63074 -970.324 -1563.43 -1236.43 -111.113 99.9726 99.9726 129.995 1.29923e+06 313.85
Loop time of 323.855 on 45 procs for 50000 steps with 14268 atoms

print		"run finished for a value $a"
run finished for a value 2

#undump	relax
#uncompute myT
unfix	freeze
unfix	1
unfix	2
group	myG	clear
group	subG 	clear
variable dxx	delete
variable dyy	delete
variable dzz  	delete

next a
jump in.CuZr_deposit l1

group 	       myG  id <= 0
0 atoms in group myG
read_data      myNanoP.txt add append group myG
  orthogonal box = (-49.9863 -49.9863 -19.9973) to (49.9863 49.9863 109.997)
  reading atoms ...
  884 atoms
  reading velocities ...
  884 velocities
group          subG subtract all myG
14268 atoms in group subG

variable       dxx   equal  "v_dispX-0.5*v_BoxL"
variable       dyy   equal  "v_dispY-0.5*v_BoxL"
variable       dzz   equal  "v_a*3+50"
59

displace_atoms myG move -13.7723376049188 -7.03621509650245 59 units box
#displace_atoms myG move 0 0  50 units box		#make it uniform
reset_ids

variable	E equal 500*(1.6e-19)				#units: eV
variable	mass equal (mass(myG))*(1.6605e-27)
variable        cvel equal (-1)*(sqrt(2*8e-17/1.0826230851e-22))/100
velocity        myG create 300 74657362 mom yes rot yes
velocity        myG set 0 0 -12.1568581600967 units box

velocity        subG create 300 74657362 mom yes rot yes
set             group bottomLayer vz  0
  1261 settings made for vz
fix             freeze bottomLayer setforce NULL NULL 0.0

#compute myT 	subG temp
#thermo_modify 	temp myT

fix            1 all nve
fix            2 bottomLayer temp/berendsen 200.0 200.0 0.1
run            50000
Step PotEng Press Pxx Pyy Pzz Lx Ly Lz Volume Temp
100000   -66896.801   -922.94006   -1841.6003   -1561.7075    634.48759    99.972562    99.972562    129.99451    1299231.9    528.96353
Averages over the last 251 of 501 rows, steps 125000 to 150000:
PotEng Press Pxx Pyy Pzz Lx Ly Lz Volume Temp
-67087.4 -882.566 -1297.44 -1261.58 -88.6754 99.9726 99.9726 129.995 1.29923e+06 320.74
Loop time of 327.401 on 45 procs for 50000 steps with 15152 atoms

print		"run finished for a value $a"
run finished for a value 3

#undump	relax
#uncompute myT
unfix	freeze
unfix	1
unfix	2
group	myG	clear
group	subG 	clear
variable dxx	delete
variable dyy	delete
variable dzz  	delete

next a
jump in.CuZr_deposit l1

group 	       myG  id <= 0
0 atoms in group myG
read_data      myNanoP.txt add append group myG
  orthogonal box = (-49.9863 -49.9863 -19.9973) to (49.9863 49.9863 109.997)
  reading atoms ...
  884 atoms
  reading velocities ...
  884 velocities
group          subG subtract all myG
15152 atoms in group subG

variable       dxx   equal  "v_dispX-0.5*v_BoxL"
variable       dyy   equal  "v_dispY-0.5*v_BoxL"
variable       dzz   equal  "v_a*3+50"
62

displace_atoms myG move 33.9735068647164 -38.7787125422284 62 units box
#displace_atoms myG move 0 0  50 units box		#make it uniform
reset_ids

variable	E equal 500*(1.6e-19)				#units: eV
variable	mass equal (mass(myG))*(1.6605e-27)
variable        cvel equal (-1)*(sqrt(2*8e-17/1.0826230851e-22))/100
velocity        myG create 300 74657362 mom yes rot yes
velocity        myG set 0 0 -12.1568581600967 units box

velocity        subG create 300 74657362 mom yes rot yes
set             group bottomLayer vz  0
  1261 settings made for vz
fix             freeze bottomLayer setforce NULL NULL 0.0

#compute myT 	subG temp
#thermo_modify 	temp myT

fix            1 all nve
fix            2 bottomLayer temp/berendsen 200.0 200.0 0.1
run            50000
Step PotEng Press Pxx Pyy Pzz Lx Ly Lz Volume Temp
150000   -70915.654   -762.12261   -1644.4503   -1476.5985      834.681    99.972562    99.972562    129.99451    1299231.9    516.50986
Averages over the last 251 of 501 rows, steps 175000 to 200000:
PotEng Press Pxx Pyy Pzz Lx Ly Lz Volume Temp
-71111 -851.346 -1155.9 -1339.02 -59.1233 99.9726 99.9726 129.995 1.29923e+06 318.996
Loop time of 329.287 on 45 procs for 50000 steps with 16036 atoms

print		"run finished for a value $a"
run finished for a value 4

#undump	relax
#uncompute myT
unfix	freeze
unfix	1
unfix	2
group	myG	clear
group	subG 	clear
variable dxx	delete
variable dyy	delete
variable dzz  	delete

next a
jump in.CuZr_deposit l1

group 	       myG  id <= 0
0 atoms in group myG
read_data      myNanoP.txt add append group myG
  orthogonal box = (-49.9863 -49.9863 -19.9973) to (49.9863 49.9863 109.997)
  reading atoms ...
  884 atoms
  reading velocities ...
  884 velocities
group          subG subtract all myG
16036 atoms in group subG

variable       dxx   equal  "v_dispX-0.5*v_BoxL"
variable       dyy   equal  "v_dispY-0.5*v_BoxL"
variable       dzz   equal  "v_a*3+50"
65

displace_atoms myG move -39.0982785835395 -25.4754837516118 65 units box
#displace_atoms myG move 0 0  50 units box		#make it uniform
reset_ids

variable	E equal 500*(1.6e-19)				#units: eV
variable	mass equal (mass(myG))*(1.6605e-27)
variable        cvel equal (-1)*(sqrt(2*8e-17/1.0826230851e-22))/100
velocity        myG create 300 74657362 mom yes rot yes
velocity        myG set 0 0 -12.1568581600967 units box

velocity        subG create 300 74657362 mom yes rot yes
set             group bottomLayer vz  0
  1261 settings made for vz
fix             freeze bottomLayer setforce NULL NULL 0.0

#compute myT 	subG temp
#thermo_modify 	temp myT

fix            1 all nve
fix            2 bottomLayer temp/berendsen 200.0 200.0 0.1
run            50000
Step PotEng Press Pxx Pyy Pzz Lx Ly Lz Volume Temp
200000   -74940.931   -803.14015   -1522.0314   -1721.3248    833.93581    99.972562    99.972562    129.99451    1299231.9    505.19069
Averages over the last 251 of 501 rows, steps 225000 to 250000:
PotEng Press Pxx Pyy Pzz Lx Ly Lz Volume Temp
-75137.8 -836.491 -1129.77 -1338.24 -41.4623 99.9726 99.9726 129.995 1.29923e+06 326.931
Loop time of 327.641 on 45 procs for 50000 steps with 16920 atoms

print		"run finished for a value $a"
run finished for a value 5

#undump	relax
#uncompute myT
unfix	freeze
unfix	1
unfix	2
group	myG	clear
group	subG 	clear
variable dxx	delete
variable dyy	delete
variable dzz  	delete

next a
jump in.CuZr_deposit l1

group 	       myG  id <= 0
0 atoms in group myG
read_data      myNanoP.txt add append group myG
  orthogonal box = (-49.9863 -49.9863 -19.9973) to (49.9863 49.9863 109.997)
  reading atoms ...
  884 atoms
  reading velocities ...
  884 velocities
group          subG subtract all myG
16920 atoms in group subG

variable       dxx   equal  "v_dispX-0.5*v_BoxL"
variable       dyy   equal  "v_dispY-0.5*v_BoxL"
variable       dzz   equal  "v_a*3+50"
68

displace_atoms myG move -37.2893687767424 41.3890073869306 68 units box
#displace_atoms myG move 0 0  50 units box		#make it uniform
reset_ids

variable	E equal 500*(1.6e-19)				#units: eV
variable	mass equal (mass(myG))*(1.6605e-27)
variable        cvel equal (-1)*(sqrt(2*8e-17/1.08262308510001e-22))/100
velocity        myG create 300 74657362 mom yes rot yes
velocity        myG set 0 0 -12.1568581600967 units box

velocity        subG create 300 74657362 mom yes rot yes
set             group bottomLayer vz  0
  1261 settings made for vz
fix             freeze bottomLayer setforce NULL NULL 0.0

#compute myT 	subG temp
#thermo_modify 	temp myT

fix            1 all nve
fix            2 bottomLayer temp/berendsen 200.0 200.0 0.1
run            50000
Step PotEng Press Pxx Pyy Pzz Lx Ly Lz Volume Temp
250000   -78968.485    -931.6555   -1619.2516   -1835.7231    660.00821    99.972562    99.972562    129.99451    1299231.9     495.2805
Averages over the last 251 of 501 rows, steps 275000 to 300000:
PotEng Press Pxx Pyy Pzz Lx Ly Lz Volume Temp
-79164.9 -733.89 -948.433 -1217.81 -35.4292 99.9726 99.9726 129.995 1.29923e+06 330.516
Loop time of 327.641 on 45 procs for 50000 steps with 17804 atoms

print		"run finished for a value $a"
run finished for a value 6

#undump	relax
#uncompute myT
unfix	freeze
unfix	1
unfix	2
group	myG	clear
group	subG 	clear
variable dxx	delete
variable dyy	delete
variable dzz  	delete

next a
jump in.CuZr_deposit l1

group 	       myG  id <= 0
0 atoms in group myG
read_data      myNanoP.txt add append group myG
  orthogonal box = (-49.9863 -49.9863 -19.9973) to (49.9863 49.9863 109.997)
  reading atoms ...
  884 atoms
  reading velocities ...
  884 velocities
group          subG subtract all myG
17804 atoms in group subG

variable       dxx   equal  "v_dispX-0.5*v_BoxL"
variable       dyy   equal  "v_dispY-0.5*v_BoxL"
variable       dzz   equal  "v_a*3+50"
71

displace_atoms myG move -46.4057872474927 1.33996783970736 71 units box
#displace_atoms myG move 0 0  50 units box		#make it uniform
reset_ids

variable	E equal 500*(1.6e-19)				#units: eV
variable	mass equal (mass(myG))*(1.6605e-27)
variable        cvel equal (-1)*(sqrt(2*8e-17/1.0826230851e-22))/100
velocity        myG create 300 74657362 mom yes rot yes
velocity        myG set 0 0 -12.1568581600967 units box

velocity        subG create 300 74657362 mom yes rot yes
set             group bottomLayer vz  0
  1261 settings made for vz
fix             freeze bottomLayer setforce NULL NULL 0.0

#compute myT 	subG temp
#thermo_modify 	temp myT

fix            1 all nve
fix            2 bottomLayer temp/berendsen 200.0 200.0 0.1
run            50000
Step PotEng Press Pxx Pyy Pzz Lx Ly Lz Volume Temp
300000   -83007.126   -676.38999   -1197.9999   -1674.0006     842.8306    99.972562    99.972562    129.99451    1299231.9    485.83965
Averages over the last 251 of 501 rows, steps 325000 to 350000:
PotEng Press Pxx Pyy Pzz Lx Ly Lz Volume Temp
-83179.6 -672.734 -809.412 -1173.89 -34.8989 99.9726 99.9726 129.995 1.29923e+06 337.737
Loop time of 330.292 on 45 procs for 50000 steps with 18688 atoms

print		"run finished for a value $a"
run finished for a value 7

#undump	relax
#uncompute myT
unfix	freeze
unfix	1
unfix	2
group	myG	clear
group	subG 	clear
variable dxx	delete
variable dyy	delete
variable dzz  	delete

next a
jump in.CuZr_deposit l1

group 	       myG  id <= 0
0 atoms in group myG
read_data      myNanoP.txt add append group myG
  orthogonal box = (-49.9863 -49.9863 -19.9973) to (49.9863 49.9863 109.997)
  reading atoms ...
  884 atoms
  reading velocities ...
  884 velocities
group          subG subtract all myG
18688 atoms in group subG

variable       dxx   equal  "v_dispX-0.5*v_BoxL"
variable       dyy   equal  "v_dispY-0.5*v_BoxL"
variable       dzz   equal  "v_a*3+50"
74

displace_atoms myG move 3.90159096900485 25.1972302718703 74 units box
#displace_atoms myG move 0 0  50 units box		#make it uniform
reset_ids

variable	E equal 500*(1.6e-19)				#units: eV
variable	mass equal (mass(myG))*(1.6605e-27)
variable        cvel equal (-1)*(sqrt(2*8e-17/1.08262308510001e-22))/100
velocity        myG create 300 74657362 mom yes rot yes
velocity        myG set 0 0 -12.1568581600967 units box

velocity        subG create 300 74657362 mom yes rot yes
set             group bottomLayer vz  0
  1261 settings made for vz
fix             freeze bottomLayer setforce NULL NULL 0.0

#compute myT 	subG temp
#thermo_modify 	temp myT

fix            1 all nve
fix            2 bottomLayer temp/berendsen 200.0 200.0 0.1
run            50000
Step PotEng Press Pxx Pyy Pzz Lx Ly Lz Volume Temp
350000   -87032.713   -808.57764   -1364.5395   -1775.3049    714.11148    99.972562    99.972562    129.99451    1299231.9     477.3215
Averages over the last 251 of 501 rows, steps 375000 to 400000:
PotEng Press Pxx Pyy Pzz Lx Ly Lz Volume Temp
-87215.2 -640.341 -829.163 -1049.8 -42.0629 99.9726 99.9726 129.995 1.29923e+06 335.848
Loop time of 331.19 on 45 procs for 50000 steps with 19572 atoms

print		"run finished for a value $a"
run finished for a value 8

#undump	relax
#uncompute myT
unfix	freeze
unfix	1
unfix	2
group	myG	clear
group	subG 	clear
variable dxx	delete
variable dyy	delete
variable dzz  	delete

next a
jump in.CuZr_deposit l1

group 	       myG  id <= 0
0 atoms in group myG
read_data      myNanoP.txt add append group myG
  orthogonal box = (-49.9863 -49.9863 -19.9973) to (49.9863 49.9863 109.997)
  reading atoms ...
  884 atoms
  reading velocities ...
  884 velocities
group          subG subtract all myG
19572 atoms in group subG

variable       dxx   equal  "v_dispX-0.5*v_BoxL"
variable       dyy   equal  "v_dispY-0.5*v_BoxL"
variable       dzz   equal  "v_a*3+50"
77

displace_atoms myG move 9.22177056775705 -11.8836212011074 77 units box
#displace_atoms myG move 0 0  50 units box		#make it uniform
reset_ids

variable	E equal 500*(1.6e-19)				#units: eV
variable	mass equal (mass(myG))*(1.6605e-27)
variable        cvel equal (-1)*(sqrt(2*8e-17/1.0826230851e-22))/100
velocity        myG create 300 74657362 mom yes rot yes
velocity        myG set 0 0 -12.1568581600967 units box

velocity        subG create 300 74657362 mom yes rot yes
set             group bottomLayer vz  0
  1261 settings made for vz
fix             freeze bottomLayer setforce NULL NULL 0.0

#compute myT 	subG temp
#thermo_modify 	temp myT

fix            1 all nve
fix            2 bottomLayer temp/berendsen 200.0 200.0 0.1
run            50000
Step PotEng Press Pxx Pyy Pzz Lx Ly Lz Volume Temp
400000    -91062.14   -856.72049    -1519.005   -1759.0422    707.88571    99.972562    99.972562    129.99451    1299231.9    469.53477
Averages over the last 251 of 501 rows, steps 425000 to 450000:
PotEng Press Pxx Pyy Pzz Lx Ly Lz Volume Temp
-91273.3 -536.357 -654.081 -931.199 -23.7919 99.9726 99.9726 129.995 1.29923e+06 336.065
Loop time of 334.538 on 45 procs for 50000 steps with 20456 atoms

print		"run finished for a value $a"
run finished for a value 9

#undump	relax
#uncompute myT
unfix	freeze
unfix	1
unfix	2
group	myG	clear
group	subG 	clear
variable dxx	delete
variable dyy	delete
variable dzz  	delete

next a
jump in.CuZr_deposit l1

group 	       myG  id <= 0
0 atoms in group myG
read_data      myNanoP.txt add append group myG
  orthogonal box = (-49.9863 -49.9863 -19.9973) to (49.9863 49.9863 109.997)
  reading atoms ...
  884 atoms
  reading velocities ...
  884 velocities
group          subG subtract all myG
20456 atoms in group subG

variable       dxx   equal  "v_dispX-0.5*v_BoxL"
variable       dyy   equal  "v_dispY-0.5*v_BoxL"
variable       dzz   equal  "v_a*3+50"
80

displace_atoms myG move 37.8929624031119 -40.3845871679558 80 units box
#displace_atoms myG move 0 0  50 units box		#make it uniform
reset_ids

variable	E equal 500*(1.6e-19)				#units: eV
variable	mass equal (mass(myG))*(1.6605e-27)
variable        cvel equal (-1)*(sqrt(2*8e-17/1.0826230851e-22))/100
velocity        myG create 300 74657362 mom yes rot yes
velocity        myG set 0 0 -12.1568581600967 units box

velocity        subG create 300 74657362 mom yes rot yes
set             group bottomLayer vz  0
  1261 settings made for vz
fix             freeze bottomLayer setforce NULL NULL 0.0

#compute myT 	subG temp
#thermo_modify 	temp myT

fix            1 all nve
fix            2 bottomLayer temp/berendsen 200.0 200.0 0.1
run            50000
Step PotEng Press Pxx Pyy Pzz Lx Ly Lz Volume Temp
450000   -95119.407   -662.28369   -1210.5831   -1487.7246    711.45665    99.972562    99.972562    129.99451    1299231.9    462.52077
Averages over the last 251 of 501 rows, steps 475000 to 500000:
PotEng Press Pxx Pyy Pzz Lx Ly Lz Volume Temp
-95285.7 -587.919 -766.284 -966.748 -30.7243 99.9726 99.9726 129.995 1.29923e+06 341.956
Loop time of 353.625 on 45 procs for 50000 steps with 21340 atoms

print		"run finished for a value $a"
run finished for a value 10

#undump	relax
#uncompute myT
unfix	freeze
unfix	1
unfix	2
group	myG	clear
group	subG 	clear
variable dxx	delete
variable dyy	delete
variable dzz  	delete

next a
jump in.CuZr_deposit l1

fix 		r1 all ave/time 1 1 1 c_prdf11[*] c_prdf22[*] c_rdf[*] c_bulk_rdf[*] file data/rdf_0GPa.rdf mode vector
run		0 pre yes post no
Step PotEng Press Pxx Pyy Pzz Lx Ly Lz Volume Temp
500000   -95344.357   -654.04698   -785.45813   -1039.4129   -137.26987    99.972562    99.972562    129.99451    1299231.9    320.08716
Loop time of 0.000125959 on 45 procs for 0 steps with 21340 atoms
