LAMMPS (12 Dec 2018)
#cuzr quench

units           metal
boundary        p p p
atom_style      atomic
atom_modify map array
variable        myT equal  300
shell           mkdir  dump

read_data	data.Substrate
  orthogonal box = (-49.9863 -49.9863 -19.9973) to (49.9863 49.9863 109.997)
  reading atoms ...
  12500 atoms
  reading velocities ...
  12500 velocities
pair_style      eam/alloy
pair_coeff      * * ZrCu.lammps.eam Zr Cu

region          bottom block INF INF INF INF INF -8  units box
group           bottomLayer region bottom
1261 atoms in group bottomLayer
thermo          100
thermo_style    custom step pe press pxx pyy pzz lx ly lz vol temp

variable	BoxL  equal  lx
variable       dispX  equal  random(0,99.9725615122585,475414)
variable       dispY  equal  random(0,99.9725615122585,475414)

## --------------  deposit loop -----------------------
variable a loop 10
label loop

group 	       myG  id <= 0
0 atoms in group myG
read_data      myNanoP.txt add append group myG
  orthogonal box = (-49.9863 -49.9863 -19.9973) to (49.9863 49.9863 109.997)
  reading atoms ...
  884 atoms
  reading velocities ...
  884 velocities
group          subG subtract all myG
12500 atoms in group subG

variable       dxx   equal  "v_dispX-0.5*v_BoxL"
variable       dyy   equal  "v_dispY-0.5*v_BoxL"
variable       dzz   equal  "v_a*3+50"
53

displace_atoms myG move -46.2086513071489 10.6927909340182 53 units box
#displace_atoms myG move 0 0  50 units box               #make it uniform
reset_ids
  update every 1 steps, delay 10 steps, check yes

velocity        myG create 300 74657362 mom yes rot yes
velocity        myG set 0 0 -2 units box

velocity        subG create 300 74657362 mom yes rot yes
set             group bottomLayer vz  0
  1261 settings made for vz
fix             freeze bottomLayer setforce NULL NULL 0.0

#compute myT 	subG temp
#thermo_modify 	temp myT

dump           relax all custom 500 dump/dump1_*.atom id type x y z
fix            1 all nve
fix            2 bottomLayer temp/berendsen 200.0 200.0 0.1
run            50000
Step PotEng Press Pxx Pyy Pzz Lx Ly Lz Volume Temp
0    -58680.58   -2982.6798   -3603.7035   -3326.3885   -2017.9476    99.972562    99.972562    129.99451    1299231.9    278.64224
Averages over the last 251 of 501 rows, steps 25000 to 50000:
PotEng Press Pxx Pyy Pzz Lx Ly Lz Volume Temp
-58994.8 -1360.9 -2014.67 -1920.84 -147.198 99.9726 99.9726 129.995 1.29923e+06 308.695
Loop time of 592.946 on 16 procs for 50000 steps with 13384 atoms

undump	relax
#uncompute myT
unfix	freeze
unfix	1
unfix	2
group	myG	delete
group	subG 	delete
variable dxx	delete
variable dyy	delete
variable dzz  	delete

next a
jump in.CuZr_deposit loop

group 	       myG  id <= 0
0 atoms in group myG
read_data      myNanoP.txt add append group myG
  orthogonal box = (-49.9863 -49.9863 -19.9973) to (49.9863 49.9863 109.997)
  reading atoms ...
  884 atoms
  reading velocities ...
  884 velocities
group          subG subtract all myG
13384 atoms in group subG

variable       dxx   equal  "v_dispX-0.5*v_BoxL"
variable       dyy   equal  "v_dispY-0.5*v_BoxL"
variable       dzz   equal  "v_a*3+50"
56

displace_atoms myG move -2.12434637959995 28.7142443749971 56 units box
#displace_atoms myG move 0 0  50 units box               #make it uniform
reset_ids

velocity        myG create 300 74657362 mom yes rot yes
velocity        myG set 0 0 -2 units box

velocity        subG create 300 74657362 mom yes rot yes
set             group bottomLayer vz  0
  1261 settings made for vz
fix             freeze bottomLayer setforce NULL NULL 0.0

#compute myT 	subG temp
#thermo_modify 	temp myT

dump           relax all custom 500 dump/dump2_*.atom id type x y z
fix            1 all nve
fix            2 bottomLayer temp/berendsen 200.0 200.0 0.1
run            50000
Step PotEng Press Pxx Pyy Pzz Lx Ly Lz Volume Temp
50000   -62817.988    -1749.901   -2417.0583   -2313.9145   -518.73009    99.972562    99.972562    129.99451    1299231.9     279.9439
Averages over the last 251 of 501 rows, steps 75000 to 100000:
PotEng Press Pxx Pyy Pzz Lx Ly Lz Volume Temp
-62977.8 -1296.69 -1976.18 -1767.95 -145.926 99.9726 99.9726 129.995 1.29923e+06 306.087
Loop time of 626.331 on 16 procs for 50000 steps with 14268 atoms

undump	relax
#uncompute myT
unfix	freeze
unfix	1
unfix	2
group	myG	delete
group	subG 	delete
variable dxx	delete
variable dyy	delete
variable dzz  	delete

next a
jump in.CuZr_deposit loop

group 	       myG  id <= 0
0 atoms in group myG
read_data      myNanoP.txt add append group myG
  orthogonal box = (-49.9863 -49.9863 -19.9973) to (49.9863 49.9863 109.997)
  reading atoms ...
  884 atoms
  reading velocities ...
  884 velocities
group          subG subtract all myG
14268 atoms in group subG

variable       dxx   equal  "v_dispX-0.5*v_BoxL"
variable       dyy   equal  "v_dispY-0.5*v_BoxL"
variable       dzz   equal  "v_a*3+50"
59

displace_atoms myG move -13.7723376049188 -7.03621509650245 59 units box
#displace_atoms myG move 0 0  50 units box               #make it uniform
reset_ids

velocity        myG create 300 74657362 mom yes rot yes
velocity        myG set 0 0 -2 units box

velocity        subG create 300 74657362 mom yes rot yes
set             group bottomLayer vz  0
  1261 settings made for vz
fix             freeze bottomLayer setforce NULL NULL 0.0

#compute myT 	subG temp
#thermo_modify 	temp myT

dump           relax all custom 500 dump/dump3_*.atom id type x y z
fix            1 all nve
fix            2 bottomLayer temp/berendsen 200.0 200.0 0.1
run            50000
Step PotEng Press Pxx Pyy Pzz Lx Ly Lz Volume Temp
100000   -66795.339   -1641.9971   -2398.9527     -2071.43   -455.60868    99.972562    99.972562    129.99451    1299231.9    281.07488
Averages over the last 251 of 501 rows, steps 125000 to 150000:
PotEng Press Pxx Pyy Pzz Lx Ly Lz Volume Temp
-66966.9 -1281.89 -1909.15 -1797.2 -139.303 99.9726 99.9726 129.995 1.29923e+06 312.226
Loop time of 652.84 on 16 procs for 50000 steps with 15152 atoms

undump	relax
#uncompute myT
unfix	freeze
unfix	1
unfix	2
group	myG	delete
group	subG 	delete
variable dxx	delete
variable dyy	delete
variable dzz  	delete

next a
jump in.CuZr_deposit loop

group 	       myG  id <= 0
0 atoms in group myG
read_data      myNanoP.txt add append group myG
  orthogonal box = (-49.9863 -49.9863 -19.9973) to (49.9863 49.9863 109.997)
  reading atoms ...
  884 atoms
  reading velocities ...
  884 velocities
group          subG subtract all myG
15152 atoms in group subG

variable       dxx   equal  "v_dispX-0.5*v_BoxL"
variable       dyy   equal  "v_dispY-0.5*v_BoxL"
variable       dzz   equal  "v_a*3+50"
62

displace_atoms myG move 33.9735068647164 -38.7787125422284 62 units box
#displace_atoms myG move 0 0  50 units box               #make it uniform
reset_ids

velocity        myG create 300 74657362 mom yes rot yes
velocity        myG set 0 0 -2 units box

velocity        subG create 300 74657362 mom yes rot yes
set             group bottomLayer vz  0
  1261 settings made for vz
fix             freeze bottomLayer setforce NULL NULL 0.0

#compute myT 	subG temp
#thermo_modify 	temp myT

dump           relax all custom 500 dump/dump4_*.atom id type x y z
fix            1 all nve
fix            2 bottomLayer temp/berendsen 200.0 200.0 0.1
run            50000
Step PotEng Press Pxx Pyy Pzz Lx Ly Lz Volume Temp
150000   -70798.179   -1696.9288   -2338.1494   -2221.6964   -530.94058    99.972562    99.972562    129.99451    1299231.9    282.27557
Averages over the last 251 of 501 rows, steps 175000 to 200000:
PotEng Press Pxx Pyy Pzz Lx Ly Lz Volume Temp
-70955.2 -1188.24 -1688.05 -1738.62 -138.06 99.9726 99.9726 129.995 1.29923e+06 309.208
Loop time of 665.857 on 16 procs for 50000 steps with 16036 atoms

undump	relax
#uncompute myT
unfix	freeze
unfix	1
unfix	2
group	myG	delete
group	subG 	delete
variable dxx	delete
variable dyy	delete
variable dzz  	delete

next a
jump in.CuZr_deposit loop

group 	       myG  id <= 0
0 atoms in group myG
read_data      myNanoP.txt add append group myG
  orthogonal box = (-49.9863 -49.9863 -19.9973) to (49.9863 49.9863 109.997)
  reading atoms ...
  884 atoms
  reading velocities ...
  884 velocities
group          subG subtract all myG
16036 atoms in group subG

variable       dxx   equal  "v_dispX-0.5*v_BoxL"
variable       dyy   equal  "v_dispY-0.5*v_BoxL"
variable       dzz   equal  "v_a*3+50"
65

displace_atoms myG move -39.0982785835395 -25.4754837516118 65 units box
#displace_atoms myG move 0 0  50 units box               #make it uniform
reset_ids

velocity        myG create 300 74657362 mom yes rot yes
velocity        myG set 0 0 -2 units box

velocity        subG create 300 74657362 mom yes rot yes
set             group bottomLayer vz  0
  1261 settings made for vz
fix             freeze bottomLayer setforce NULL NULL 0.0

#compute myT 	subG temp
#thermo_modify 	temp myT

dump           relax all custom 500 dump/dump5_*.atom id type x y z
fix            1 all nve
fix            2 bottomLayer temp/berendsen 200.0 200.0 0.1
run            50000
Step PotEng Press Pxx Pyy Pzz Lx Ly Lz Volume Temp
200000   -74775.986   -1563.4738   -2093.6337   -2128.1649   -468.62265    99.972562    99.972562    129.99451    1299231.9    282.89262
Averages over the last 251 of 501 rows, steps 225000 to 250000:
PotEng Press Pxx Pyy Pzz Lx Ly Lz Volume Temp
-74960.7 -1232.19 -1752.11 -1803.17 -141.287 99.9726 99.9726 129.995 1.29923e+06 316.794
Loop time of 674.437 on 16 procs for 50000 steps with 16920 atoms

undump	relax
#uncompute myT
unfix	freeze
unfix	1
unfix	2
group	myG	delete
group	subG 	delete
variable dxx	delete
variable dyy	delete
variable dzz  	delete

next a
jump in.CuZr_deposit loop

group 	       myG  id <= 0
0 atoms in group myG
read_data      myNanoP.txt add append group myG
  orthogonal box = (-49.9863 -49.9863 -19.9973) to (49.9863 49.9863 109.997)
  reading atoms ...
  884 atoms
  reading velocities ...
  884 velocities
group          subG subtract all myG
16920 atoms in group subG

variable       dxx   equal  "v_dispX-0.5*v_BoxL"
variable       dyy   equal  "v_dispY-0.5*v_BoxL"
variable       dzz   equal  "v_a*3+50"
68

displace_atoms myG move -37.2893687767424 41.3890073869306 68 units box
#displace_atoms myG move 0 0  50 units box               #make it uniform
reset_ids

velocity        myG create 300 74657362 mom yes rot yes
velocity        myG set 0 0 -2 units box

velocity        subG create 300 74657362 mom yes rot yes
set             group bottomLayer vz  0
  1261 settings made for vz
fix             freeze bottomLayer setforce NULL NULL 0.0

#compute myT 	subG temp
#thermo_modify 	temp myT

dump           relax all custom 500 dump/dump6_*.atom id type x y z
fix            1 all nve
fix            2 bottomLayer temp/berendsen 200.0 200.0 0.1
run            50000
Step PotEng Press Pxx Pyy Pzz Lx Ly Lz Volume Temp
250000   -78801.558   -1581.3022   -2063.6083   -2209.6231   -470.67515    99.972562    99.972562    129.99451    1299231.9    283.88629
Averages over the last 251 of 501 rows, steps 275000 to 300000:
PotEng Press Pxx Pyy Pzz Lx Ly Lz Volume Temp
-78992.8 -1276.61 -1731.55 -1958.57 -139.726 99.9726 99.9726 129.995 1.29923e+06 319.84
Loop time of 700.243 on 16 procs for 50000 steps with 17804 atoms

undump	relax
#uncompute myT
unfix	freeze
unfix	1
unfix	2
group	myG	delete
group	subG 	delete
variable dxx	delete
variable dyy	delete
variable dzz  	delete

next a
jump in.CuZr_deposit loop

group 	       myG  id <= 0
0 atoms in group myG
read_data      myNanoP.txt add append group myG
  orthogonal box = (-49.9863 -49.9863 -19.9973) to (49.9863 49.9863 109.997)
  reading atoms ...
  884 atoms
  reading velocities ...
  884 velocities
group          subG subtract all myG
17804 atoms in group subG

variable       dxx   equal  "v_dispX-0.5*v_BoxL"
variable       dyy   equal  "v_dispY-0.5*v_BoxL"
variable       dzz   equal  "v_a*3+50"
71

displace_atoms myG move -46.4057872474927 1.33996783970736 71 units box
#displace_atoms myG move 0 0  50 units box               #make it uniform
reset_ids

velocity        myG create 300 74657362 mom yes rot yes
velocity        myG set 0 0 -2 units box

velocity        subG create 300 74657362 mom yes rot yes
set             group bottomLayer vz  0
  1261 settings made for vz
fix             freeze bottomLayer setforce NULL NULL 0.0

#compute myT 	subG temp
#thermo_modify 	temp myT

dump           relax all custom 500 dump/dump7_*.atom id type x y z
fix            1 all nve
fix            2 bottomLayer temp/berendsen 200.0 200.0 0.1
run            50000
Step PotEng Press Pxx Pyy Pzz Lx Ly Lz Volume Temp
300000   -82831.163   -1605.7096   -2172.6026   -2322.4415   -322.08457    99.972562    99.972562    129.99451    1299231.9     284.6556
Averages over the last 251 of 501 rows, steps 325000 to 350000:
PotEng Press Pxx Pyy Pzz Lx Ly Lz Volume Temp
-82987.6 -1253.37 -1652.65 -1966.23 -141.219 99.9726 99.9726 129.995 1.29923e+06 315.838
Loop time of 714.969 on 16 procs for 50000 steps with 18688 atoms

undump	relax
#uncompute myT
unfix	freeze
unfix	1
unfix	2
group	myG	delete
group	subG 	delete
variable dxx	delete
variable dyy	delete
variable dzz  	delete

next a
jump in.CuZr_deposit loop

group 	       myG  id <= 0
0 atoms in group myG
read_data      myNanoP.txt add append group myG
  orthogonal box = (-49.9863 -49.9863 -19.9973) to (49.9863 49.9863 109.997)
  reading atoms ...
  884 atoms
  reading velocities ...
  884 velocities
group          subG subtract all myG
18688 atoms in group subG

variable       dxx   equal  "v_dispX-0.5*v_BoxL"
variable       dyy   equal  "v_dispY-0.5*v_BoxL"
variable       dzz   equal  "v_a*3+50"
74

displace_atoms myG move 3.90159096900485 25.1972302718703 74 units box
#displace_atoms myG move 0 0  50 units box               #make it uniform
reset_ids

velocity        myG create 300 74657362 mom yes rot yes
velocity        myG set 0 0 -2 units box

velocity        subG create 300 74657362 mom yes rot yes
set             group bottomLayer vz  0
  1261 settings made for vz
fix             freeze bottomLayer setforce NULL NULL 0.0

#compute myT 	subG temp
#thermo_modify 	temp myT

dump           relax all custom 500 dump/dump8_*.atom id type x y z
fix            1 all nve
fix            2 bottomLayer temp/berendsen 200.0 200.0 0.1
run            50000
Step PotEng Press Pxx Pyy Pzz Lx Ly Lz Volume Temp
350000   -86809.106   -1554.8739   -2007.9833   -2275.1732   -381.46528    99.972562    99.972562    129.99451    1299231.9    285.35574
Averages over the last 251 of 501 rows, steps 375000 to 400000:
PotEng Press Pxx Pyy Pzz Lx Ly Lz Volume Temp
-86929.2 -1240.31 -1734.29 -1860.59 -126.061 99.9726 99.9726 129.995 1.29923e+06 305.856
Loop time of 717.373 on 16 procs for 50000 steps with 19572 atoms

undump	relax
#uncompute myT
unfix	freeze
unfix	1
unfix	2
group	myG	delete
group	subG 	delete
variable dxx	delete
variable dyy	delete
variable dzz  	delete

next a
jump in.CuZr_deposit loop

group 	       myG  id <= 0
0 atoms in group myG
read_data      myNanoP.txt add append group myG
  orthogonal box = (-49.9863 -49.9863 -19.9973) to (49.9863 49.9863 109.997)
  reading atoms ...
  884 atoms
  reading velocities ...
  884 velocities
group          subG subtract all myG
19572 atoms in group subG

variable       dxx   equal  "v_dispX-0.5*v_BoxL"
variable       dyy   equal  "v_dispY-0.5*v_BoxL"
variable       dzz   equal  "v_a*3+50"
77

displace_atoms myG move 9.22177056775705 -11.8836212011074 77 units box
#displace_atoms myG move 0 0  50 units box               #make it uniform
reset_ids

velocity        myG create 300 74657362 mom yes rot yes
velocity        myG set 0 0 -2 units box

velocity        subG create 300 74657362 mom yes rot yes
set             group bottomLayer vz  0
  1261 settings made for vz
fix             freeze bottomLayer setforce NULL NULL 0.0

#compute myT 	subG temp
#thermo_modify 	temp myT

dump           relax all custom 500 dump/dump9_*.atom id type x y z
fix            1 all nve
fix            2 bottomLayer temp/berendsen 200.0 200.0 0.1
run            50000
Step PotEng Press Pxx Pyy Pzz Lx Ly Lz Volume Temp
400000   -90738.477   -1735.0351     -2308.28    -2400.626   -496.19922    99.972562    99.972562    129.99451    1299231.9    286.09097
Averages over the last 251 of 501 rows, steps 425000 to 450000:
PotEng Press Pxx Pyy Pzz Lx Ly Lz Volume Temp
-90897.1 -1183.36 -1714.23 -1728.54 -107.323 99.9726 99.9726 129.995 1.29923e+06 315.471
Loop time of 720.986 on 16 procs for 50000 steps with 20456 atoms

undump	relax
#uncompute myT
unfix	freeze
unfix	1
unfix	2
group	myG	delete
group	subG 	delete
variable dxx	delete
variable dyy	delete
variable dzz  	delete

next a
jump in.CuZr_deposit loop

group 	       myG  id <= 0
0 atoms in group myG
read_data      myNanoP.txt add append group myG
  orthogonal box = (-49.9863 -49.9863 -19.9973) to (49.9863 49.9863 109.997)
  reading atoms ...
  884 atoms
  reading velocities ...
  884 velocities
group          subG subtract all myG
20456 atoms in group subG

variable       dxx   equal  "v_dispX-0.5*v_BoxL"
variable       dyy   equal  "v_dispY-0.5*v_BoxL"
variable       dzz   equal  "v_a*3+50"
80

displace_atoms myG move 37.8929624031119 -40.3845871679558 80 units box
#displace_atoms myG move 0 0  50 units box               #make it uniform
reset_ids

velocity        myG create 300 74657362 mom yes rot yes
velocity        myG set 0 0 -2 units box

velocity        subG create 300 74657362 mom yes rot yes
set             group bottomLayer vz  0
  1261 settings made for vz
fix             freeze bottomLayer setforce NULL NULL 0.0

#compute myT 	subG temp
#thermo_modify 	temp myT

dump           relax all custom 500 dump/dump10_*.atom id type x y z
fix            1 all nve
fix            2 bottomLayer temp/berendsen 200.0 200.0 0.1
run            50000
Step PotEng Press Pxx Pyy Pzz Lx Ly Lz Volume Temp
450000   -94739.669   -1591.5615   -2109.3616   -2175.4799   -489.84289    99.972562    99.972562    129.99451    1299231.9    286.67436
Averages over the last 251 of 501 rows, steps 475000 to 500000:
PotEng Press Pxx Pyy Pzz Lx Ly Lz Volume Temp
-94911.2 -1163.35 -1690.99 -1668.61 -130.448 99.9726 99.9726 129.995 1.29923e+06 315.359
Loop time of 724.014 on 16 procs for 50000 steps with 21340 atoms

undump	relax
#uncompute myT
unfix	freeze
unfix	1
unfix	2
group	myG	delete
group	subG 	delete
variable dxx	delete
variable dyy	delete
variable dzz  	delete

next a
jump in.CuZr_deposit loop
