LAMMPS (5 Jun 2019)
# Input file for Cu cascade simulation

variable	latparam equal 4             #Lattice constant at 300K
variable	highT equal  2000
variable	coolT equal 300
variable	boxL equal 200
variable	quenchrt equal 10e-3 #10e-5		#10^10K/s= 10^-5K/timestep
variable	t_equil equal 20000 #00
variable	t_quench equal (2000-300)/(0.01)

variable	e1 equal 50
variable	e2 equal 50
variable	Xfraction equal (v_e1)/((v_e1)+(v_e2))

variable	Xtype equal 1	#1 =Zr, Cu =2
variable	th equal 20000/10
variable	dr equal 20000/5

# ------------------------ INITIALIZATION ----------------------------
echo both
units 		metal
dimension	3
boundary	p p p
atom_style	atomic
atom_modify map array

# ----------------------- ATOM DEFINITION ----------------------------
lattice		fcc 4
Lattice spacing in x,y,z = 4 4 4
region		whole block -200 200 -200 200 -10 10 units box
create_box	2 whole
Created orthogonal box = (-200 -200 -10) to (200 200 10)
create_atoms	2 region whole                #create all Cu
Created 200000 atoms
set		group all type/fraction 1 0.5 8374625
  99726 settings made for type/fraction

group		Zr type 1
99726 atoms in group Zr
group		Cu type 2
100274 atoms in group Cu

# ------------------------ FORCE FIELDS ------------------------------
pair_style      eam/alloy
pair_coeff      * * ZrCu.lammps.eam Zr Cu

thermo          2000
thermo_style    custom step pe press pxx pyy pzz lx ly lz vol temp

timestep       0.002
min_style     fire
minimize   1e-10  1e-10  100  100
  update every 1 steps, delay 0 steps, check yes
Step PotEng Press Pxx Pyy Pzz Lx Ly Lz Volume Temp
0   -946962.39    112280.97     112278.9     112299.1    112264.89          400          400           20      3200000            0
Loop time of 57.5973 on 24 procs for 100 steps with 200000 atoms

Minimization stats:
  Stopping criterion = max iterations
  Energy initial, next-to-last, final =
  Force two-norm initial, final = 507.228 21.1697
  Force max component initial, final = 2.68293 0.609475
  Final line search alpha, max atom move = 0 0
  Iterations, force evaluations = 100 100

velocity        all create 2000 4928459 dist gaussian
fix             1 all nvt temp 2000 2000 0.1
run             20000
Step PotEng Press Pxx Pyy Pzz Lx Ly Lz Volume Temp
100   -972888.43    114802.75    114966.12    114620.62     114821.5          400          400           20      3200000         2000
Averages over the last 6 of 12 rows, steps 12000 to 20100:
PotEng Press Pxx Pyy Pzz Lx Ly Lz Volume Temp
-915523 180691 180704 180663 180705 400 400 20 3.2e+06 2001.33
Loop time of 9808.16 on 24 procs for 20000 steps with 200000 atoms

write_restart	restart.equilib

unfix           1
#dump            melt all custom v_dr dump/dump*.atom id type x y z
#dump            1 all cfg 10000 cfg/*.cfg id type xs ys zs
#dump_modify     1 element Zr Cu Al
fix              2 all npt temp  2000 300 0.1  iso 0.0 0.0 1
run		170000
Step PotEng Press Pxx Pyy Pzz Lx Ly Lz Volume Temp
20100   -915467.73    180843.13    180841.58    180985.01    180702.81          400          400           20      3200000    2001.0602
Averages over the last 44 of 87 rows, steps 106000 to 190100:
PotEng Press Pxx Pyy Pzz Lx Ly Lz Volume Temp
-972717 18.0589 -0.984217 -21.1843 76.3452 415.195 415.195 20.7598 3.57889e+06 711.544
Loop time of 66623.7 on 24 procs for 170000 steps with 200000 atoms

write_data	data.Substrate
